36
xyz
C         -3.51776        1.18962        0.00007
C         -2.82626        2.40320        0.00206
C         -1.42526        2.42839        0.00180
C         -0.71672        3.63715        0.00228
C          0.68018        3.64495        0.00142
C          1.40231        2.44428        0.00086
C          2.80345        2.43473        0.00052
C          3.50843        1.22894        0.00065
C          2.82944        0.00342        0.00033
C          3.52183       -1.21465       -0.00003
C          2.83011       -2.42804       -0.00151
C          1.42931       -2.45267       -0.00233
C          0.72086       -3.66141       -0.00431
C         -0.67578       -3.66920       -0.00534
C         -1.39763       -2.46846       -0.00429
C         -2.79863       -2.45951       -0.00563
C         -3.50384       -1.25392       -0.00436
C         -2.82507       -0.02822       -0.00169
C         -1.41216       -0.02002       -0.00089
C         -0.71183        1.20887        0.00060
C          0.70258        1.21676        0.00061
C          1.41655       -0.00423       -0.00002
C          0.71616       -1.23296       -0.00133
C         -0.69815       -1.24088       -0.00210
H         -4.60542        1.20499       -0.00023
H         -3.39422        3.33093        0.00349
H         -1.24693        4.58688        0.00301
H          1.19980        4.60057        0.00116
H          3.36100        3.36873        0.00016
H          4.59589        1.25648        0.00070
H          4.60949       -1.23053        0.00059
H          3.39763       -3.35604       -0.00225
H          1.25118       -4.61113       -0.00529
H         -1.19546       -4.62479       -0.00706
H         -3.35576       -3.39377       -0.00780
H         -4.59124       -1.28192       -0.00567
